Circuit: * C:\Users\paulo\Desktop\EL\NOR_NEW3-delay5.asc

Instance "m:c2_mp1:1": Length shorter than recommended for a level 1 MOSFET.
Instance "m:c2_mn1:1": Length shorter than recommended for a level 1 MOSFET.
Instance "m:c2_mn2:1": Length shorter than recommended for a level 1 MOSFET.
Instance "m:c1_mn3:1": Length shorter than recommended for a level 1 MOSFET.
Instance "m:c2_mp2:1": Length shorter than recommended for a level 1 MOSFET.
Instance "m:c1_mp3:1": Length shorter than recommended for a level 1 MOSFET.
Instance "m:c1_mp2:1": Length shorter than recommended for a level 1 MOSFET.
Instance "m:c1_mn2:1": Length shorter than recommended for a level 1 MOSFET.
Instance "m:c1_mp1:1": Length shorter than recommended for a level 1 MOSFET.
Instance "m:c1_mn1:1": Length shorter than recommended for a level 1 MOSFET.
Direct Newton iteration for .op point succeeded.

Date: Fri Dec 22 19:58:24 2023
Total elapsed time: 0.478 seconds.

tnom = 27
temp = 27
method = modified trap
totiter = 3755
traniter = 3745
tranpoints = 1518
accept = 1397
rejected = 121
matrix size = 12
fillins = 0
solver = Normal
Avg thread counts: 1.7/2.8/2.8/1.7
Matrix Compiler1: 840 bytes object code size  0.5/1.0/[0.4]
Matrix Compiler2: off  [0.3]/1.4/0.4

