Circuit: * C:\Users\paulo\Desktop\EL\NOR_NEW3-delay3 (multiplas).asc

Instance "m:c2_mp1:1": Length shorter than recommended for a level 1 MOSFET.
Instance "m:c2_mn1:1": Length shorter than recommended for a level 1 MOSFET.
Instance "m:c2_mn2:1": Length shorter than recommended for a level 1 MOSFET.
Instance "m:c1_mn3:1": Length shorter than recommended for a level 1 MOSFET.
Instance "m:c2_mp2:1": Length shorter than recommended for a level 1 MOSFET.
Instance "m:c1_mp3:1": Length shorter than recommended for a level 1 MOSFET.
Instance "m:c1_mp2:1": Length shorter than recommended for a level 1 MOSFET.
Instance "m:c1_mn2:1": Length shorter than recommended for a level 1 MOSFET.
Instance "m:c1_mp1:1": Length shorter than recommended for a level 1 MOSFET.
Instance "m:c1_mn1:1": Length shorter than recommended for a level 1 MOSFET.
Direct Newton iteration for .op point succeeded.

Date: Fri Dec 22 15:22:51 2023
Total elapsed time: 0.225 seconds.

tnom = 27
temp = 27
method = modified trap
totiter = 3535
traniter = 3525
tranpoints = 1458
accept = 1351
rejected = 107
matrix size = 12
fillins = 0
solver = Normal
Avg thread counts: 1.8/2.9/2.9/1.8
Matrix Compiler1: 840 bytes object code size  0.6/1.1/[0.3]
Matrix Compiler2: 1.15 KB object code size  0.4/1.2/[0.3]

