Circuit: * C:\Users\paulo\Desktop\EL\NOR_NEW3-VTC-VIHLSP.asc

Instance "m:c2_mp1:1": Length shorter than recommended for a level 1 MOSFET.
Instance "m:c2_mn1:1": Length shorter than recommended for a level 1 MOSFET.
Instance "m:c2_mn2:1": Length shorter than recommended for a level 1 MOSFET.
Instance "m:c1_mn3:1": Length shorter than recommended for a level 1 MOSFET.
Instance "m:c2_mp2:1": Length shorter than recommended for a level 1 MOSFET.
Instance "m:c1_mp3:1": Length shorter than recommended for a level 1 MOSFET.
Instance "m:c1_mp2:1": Length shorter than recommended for a level 1 MOSFET.
Instance "m:c1_mn2:1": Length shorter than recommended for a level 1 MOSFET.
Instance "m:c1_mp1:1": Length shorter than recommended for a level 1 MOSFET.
Instance "m:c1_mn1:1": Length shorter than recommended for a level 1 MOSFET.

Date: Fri Dec 22 15:34:15 2023
Total elapsed time: 0.355 seconds.

tnom = 27
temp = 27
method = trap
totiter = 18073
traniter = 0
tranpoints = 0
accept = 0
rejected = 0
matrix size = 12
fillins = 0
solver = Normal
Avg thread counts: 1.2/0.0/1.5/1.2
Matrix Compiler1: 786 bytes object code size  0.7/0.5/[0.2]
Matrix Compiler2: 1.18 KB object code size  0.4/0.5/[0.1]

