Circuit: * C:\Users\paulo\Desktop\EL\NOR_NEW3-inverter.asc

Instance "m:c2_mp1:1": Length shorter than recommended for a level 1 MOSFET.
Instance "m:c2_mn1:1": Length shorter than recommended for a level 1 MOSFET.
Instance "m:c2_mn2:1": Length shorter than recommended for a level 1 MOSFET.
Instance "m:c1_mn3:1": Length shorter than recommended for a level 1 MOSFET.
Instance "m:c2_mp2:1": Length shorter than recommended for a level 1 MOSFET.
Instance "m:c1_mp3:1": Length shorter than recommended for a level 1 MOSFET.
Instance "m:c1_mp2:1": Length shorter than recommended for a level 1 MOSFET.
Instance "m:c1_mn2:1": Length shorter than recommended for a level 1 MOSFET.
Instance "m:c1_mp1:1": Length shorter than recommended for a level 1 MOSFET.
Instance "m:c1_mn1:1": Length shorter than recommended for a level 1 MOSFET.
Direct Newton iteration for .op point succeeded.

Date: Fri Dec 22 15:31:28 2023
Total elapsed time: 0.243 seconds.

tnom = 27
temp = 27
method = modified trap
totiter = 1976
traniter = 1966
tranpoints = 722
accept = 627
rejected = 95
matrix size = 12
fillins = 0
solver = Normal
Avg thread counts: 2.4/4.6/4.7/2.4
Matrix Compiler1: 786 bytes object code size  0.7/0.6/[0.4]
Matrix Compiler2: off  [0.4]/0.8/0.4

