Circuit: * C:\Users\paulo\Desktop\EL\NOR_NEW3-delay2.asc

Instance "m:c2_mp1:1": Length shorter than recommended for a level 1 MOSFET.
Instance "m:c2_mn1:1": Length shorter than recommended for a level 1 MOSFET.
Instance "m:c2_mn2:1": Length shorter than recommended for a level 1 MOSFET.
Instance "m:c1_mn3:1": Length shorter than recommended for a level 1 MOSFET.
Instance "m:c2_mp2:1": Length shorter than recommended for a level 1 MOSFET.
Instance "m:c1_mp3:1": Length shorter than recommended for a level 1 MOSFET.
Instance "m:c1_mp2:1": Length shorter than recommended for a level 1 MOSFET.
Instance "m:c1_mn2:1": Length shorter than recommended for a level 1 MOSFET.
Instance "m:c1_mp1:1": Length shorter than recommended for a level 1 MOSFET.
Instance "m:c1_mn1:1": Length shorter than recommended for a level 1 MOSFET.
Direct Newton iteration for .op point succeeded.

Date: Fri Dec 22 15:11:20 2023
Total elapsed time: 0.263 seconds.

tnom = 27
temp = 27
method = modified trap
totiter = 3118
traniter = 3108
tranpoints = 1345
accept = 1267
rejected = 78
matrix size = 12
fillins = 0
solver = Normal
Avg thread counts: 1.9/3.0/3.0/1.9
Matrix Compiler1: 840 bytes object code size  0.7/0.9/[0.4]
Matrix Compiler2: 1.15 KB object code size  0.4/1.5/[0.3]

